Loads2Phase.txt
New Load.LOAD1_1 Phases=1 Bus1=34.1 kV=0.23 PF=0.95 kW=3.795 Yearly=Shape_Load_1 Vminpu=0.9 Vmaxpu=1.1  
New Load.LOAD1_2 Phases=1 Bus1=34.2 kV=0.23 PF=0.95 kW=3.795 Yearly=Shape_Load_1 Vminpu=0.9 Vmaxpu=1.1  
New Load.LOAD2_2 Phases=1 Bus1=47.2 kV=0.23 PF=0.95 kW=4.91 Yearly=Shape_Load_2 Vminpu=0.9 Vmaxpu=1.1  
New Load.LOAD2_3 Phases=1 Bus1=47.3 kV=0.23 PF=0.95 kW=4.91 Yearly=Shape_Load_2 Vminpu=0.9 Vmaxpu=1.1  
New Load.LOAD3_1 Phases=1 Bus1=70.1 kV=0.23 PF=0.95 kW=2.73 Yearly=Shape_Load_3 Vminpu=0.9 Vmaxpu=1.1  
New Load.LOAD3_2 Phases=1 Bus1=70.2 kV=0.23 PF=0.95 kW=2.73 Yearly=Shape_Load_3 Vminpu=0.9 Vmaxpu=1.1  
New Load.LOAD4_1 Phases=1 Bus1=73.1 kV=0.23 PF=0.95 kW=4.45 Yearly=Shape_Load_4 Vminpu=0.9 Vmaxpu=1.1  
New Load.LOAD4_2 Phases=1 Bus1=73.2 kV=0.23 PF=0.95 kW=4.45 Yearly=Shape_Load_4 Vminpu=0.9 Vmaxpu=1.1  
New Load.LOAD5_1 Phases=1 Bus1=74.1 kV=0.23 PF=0.95 kW=4.755 Yearly=Shape_Load_5 Vminpu=0.9 Vmaxpu=1.1  
New Load.LOAD5_2 Phases=1 Bus1=74.2 kV=0.23 PF=0.95 kW=4.755 Yearly=Shape_Load_5 Vminpu=0.9 Vmaxpu=1.1  
New Load.LOAD6_2 Phases=1 Bus1=83.2 kV=0.23 PF=0.95 kW=4.69 Yearly=Shape_Load_6 Vminpu=0.9 Vmaxpu=1.1  
New Load.LOAD6_3 Phases=1 Bus1=83.3 kV=0.23 PF=0.95 kW=4.69 Yearly=Shape_Load_6 Vminpu=0.9 Vmaxpu=1.1  
New Load.LOAD7_2 Phases=1 Bus1=178.2 kV=0.23 PF=0.95 kW=4.065 Yearly=Shape_Load_7 Vminpu=0.9 Vmaxpu=1.1  
New Load.LOAD7_3 Phases=1 Bus1=178.3 kV=0.23 PF=0.95 kW=4.065 Yearly=Shape_Load_7 Vminpu=0.9 Vmaxpu=1.1  
New Load.LOAD8_3 Phases=1 Bus1=208.3 kV=0.23 PF=0.95 kW=3.37 Yearly=Shape_Load_8 Vminpu=0.9 Vmaxpu=1.1  
New Load.LOAD8_1 Phases=1 Bus1=208.1 kV=0.23 PF=0.95 kW=3.37 Yearly=Shape_Load_8 Vminpu=0.9 Vmaxpu=1.1  
New Load.LOAD9_1 Phases=1 Bus1=225.1 kV=0.23 PF=0.95 kW=4.095 Yearly=Shape_Load_9 Vminpu=0.9 Vmaxpu=1.1  
New Load.LOAD9_2 Phases=1 Bus1=225.2 kV=0.23 PF=0.95 kW=4.095 Yearly=Shape_Load_9 Vminpu=0.9 Vmaxpu=1.1  
New Load.LOAD10_2 Phases=1 Bus1=248.2 kV=0.23 PF=0.95 kW=3.875 Yearly=Shape_Load_10 Vminpu=0.9 Vmaxpu=1.1  
New Load.LOAD10_3 Phases=1 Bus1=248.3 kV=0.23 PF=0.95 kW=3.875 Yearly=Shape_Load_10 Vminpu=0.9 Vmaxpu=1.1  
New Load.LOAD11_2 Phases=1 Bus1=249.2 kV=0.23 PF=0.95 kW=2.5 Yearly=Shape_Load_11 Vminpu=0.9 Vmaxpu=1.1  
New Load.LOAD11_3 Phases=1 Bus1=249.3 kV=0.23 PF=0.95 kW=2.5 Yearly=Shape_Load_11 Vminpu=0.9 Vmaxpu=1.1  
New Load.LOAD12_3 Phases=1 Bus1=264.3 kV=0.23 PF=0.95 kW=4.065 Yearly=Shape_Load_12 Vminpu=0.9 Vmaxpu=1.1  
New Load.LOAD12_1 Phases=1 Bus1=264.1 kV=0.23 PF=0.95 kW=4.065 Yearly=Shape_Load_12 Vminpu=0.9 Vmaxpu=1.1  
New Load.LOAD13_2 Phases=1 Bus1=276.2 kV=0.23 PF=0.95 kW=5.25 Yearly=Shape_Load_13 Vminpu=0.9 Vmaxpu=1.1  
New Load.LOAD13_3 Phases=1 Bus1=276.3 kV=0.23 PF=0.95 kW=5.25 Yearly=Shape_Load_13 Vminpu=0.9 Vmaxpu=1.1  
New Load.LOAD14_1 Phases=1 Bus1=289.1 kV=0.23 PF=0.95 kW=5.55 Yearly=Shape_Load_14 Vminpu=0.9 Vmaxpu=1.1  
New Load.LOAD14_2 Phases=1 Bus1=289.2 kV=0.23 PF=0.95 kW=5.55 Yearly=Shape_Load_14 Vminpu=0.9 Vmaxpu=1.1  
New Load.LOAD15_2 Phases=1 Bus1=314.2 kV=0.23 PF=0.95 kW=2.415 Yearly=Shape_Load_15 Vminpu=0.9 Vmaxpu=1.1  
New Load.LOAD15_3 Phases=1 Bus1=314.3 kV=0.23 PF=0.95 kW=2.415 Yearly=Shape_Load_15 Vminpu=0.9 Vmaxpu=1.1  
New Load.LOAD16_3 Phases=1 Bus1=320.3 kV=0.23 PF=0.95 kW=1.82 Yearly=Shape_Load_16 Vminpu=0.9 Vmaxpu=1.1  
New Load.LOAD16_1 Phases=1 Bus1=320.1 kV=0.23 PF=0.95 kW=1.82 Yearly=Shape_Load_16 Vminpu=0.9 Vmaxpu=1.1  
New Load.LOAD17_3 Phases=1 Bus1=327.3 kV=0.23 PF=0.95 kW=2.74 Yearly=Shape_Load_17 Vminpu=0.9 Vmaxpu=1.1  
New Load.LOAD17_1 Phases=1 Bus1=327.1 kV=0.23 PF=0.95 kW=2.74 Yearly=Shape_Load_17 Vminpu=0.9 Vmaxpu=1.1  
New Load.LOAD18_3 Phases=1 Bus1=337.3 kV=0.23 PF=0.95 kW=5.85 Yearly=Shape_Load_18 Vminpu=0.9 Vmaxpu=1.1  
New Load.LOAD18_1 Phases=1 Bus1=337.1 kV=0.23 PF=0.95 kW=5.85 Yearly=Shape_Load_18 Vminpu=0.9 Vmaxpu=1.1  
New Load.LOAD19_3 Phases=1 Bus1=342.3 kV=0.23 PF=0.95 kW=4.065 Yearly=Shape_Load_19 Vminpu=0.9 Vmaxpu=1.1  
New Load.LOAD19_1 Phases=1 Bus1=342.1 kV=0.23 PF=0.95 kW=4.065 Yearly=Shape_Load_19 Vminpu=0.9 Vmaxpu=1.1  
New Load.LOAD20_1 Phases=1 Bus1=349.1 kV=0.23 PF=0.95 kW=3.575 Yearly=Shape_Load_20 Vminpu=0.9 Vmaxpu=1.1  
New Load.LOAD20_2 Phases=1 Bus1=349.2 kV=0.23 PF=0.95 kW=3.575 Yearly=Shape_Load_20 Vminpu=0.9 Vmaxpu=1.1  
New Load.LOAD21_1 Phases=1 Bus1=387.1 kV=0.23 PF=0.95 kW=4.045 Yearly=Shape_Load_21 Vminpu=0.9 Vmaxpu=1.1  
New Load.LOAD21_2 Phases=1 Bus1=387.2 kV=0.23 PF=0.95 kW=4.045 Yearly=Shape_Load_21 Vminpu=0.9 Vmaxpu=1.1  
New Load.LOAD22_1 Phases=1 Bus1=388.1 kV=0.23 PF=0.95 kW=2.975 Yearly=Shape_Load_22 Vminpu=0.9 Vmaxpu=1.1  
New Load.LOAD22_2 Phases=1 Bus1=388.2 kV=0.23 PF=0.95 kW=2.975 Yearly=Shape_Load_22 Vminpu=0.9 Vmaxpu=1.1  
New Load.LOAD23_2 Phases=1 Bus1=406.2 kV=0.23 PF=0.95 kW=4.01 Yearly=Shape_Load_23 Vminpu=0.9 Vmaxpu=1.1  
New Load.LOAD23_3 Phases=1 Bus1=406.3 kV=0.23 PF=0.95 kW=4.01 Yearly=Shape_Load_23 Vminpu=0.9 Vmaxpu=1.1  
New Load.LOAD24_3 Phases=1 Bus1=458.3 kV=0.23 PF=0.95 kW=3.655 Yearly=Shape_Load_24 Vminpu=0.9 Vmaxpu=1.1  
New Load.LOAD24_1 Phases=1 Bus1=458.1 kV=0.23 PF=0.95 kW=3.655 Yearly=Shape_Load_24 Vminpu=0.9 Vmaxpu=1.1  
New Load.LOAD25_1 Phases=1 Bus1=502.1 kV=0.23 PF=0.95 kW=3.17 Yearly=Shape_Load_25 Vminpu=0.9 Vmaxpu=1.1  
New Load.LOAD25_2 Phases=1 Bus1=502.2 kV=0.23 PF=0.95 kW=3.17 Yearly=Shape_Load_25 Vminpu=0.9 Vmaxpu=1.1  
New Load.LOAD26_2 Phases=1 Bus1=522.2 kV=0.23 PF=0.95 kW=4.115 Yearly=Shape_Load_26 Vminpu=0.9 Vmaxpu=1.1  
New Load.LOAD26_3 Phases=1 Bus1=522.3 kV=0.23 PF=0.95 kW=4.115 Yearly=Shape_Load_26 Vminpu=0.9 Vmaxpu=1.1  
New Load.LOAD27_3 Phases=1 Bus1=539.3 kV=0.23 PF=0.95 kW=2.405 Yearly=Shape_Load_27 Vminpu=0.9 Vmaxpu=1.1  
New Load.LOAD27_1 Phases=1 Bus1=539.1 kV=0.23 PF=0.95 kW=2.405 Yearly=Shape_Load_27 Vminpu=0.9 Vmaxpu=1.1  
New Load.LOAD28_3 Phases=1 Bus1=556.3 kV=0.23 PF=0.95 kW=5.6 Yearly=Shape_Load_28 Vminpu=0.9 Vmaxpu=1.1  
New Load.LOAD28_1 Phases=1 Bus1=556.1 kV=0.23 PF=0.95 kW=5.6 Yearly=Shape_Load_28 Vminpu=0.9 Vmaxpu=1.1  
New Load.LOAD29_1 Phases=1 Bus1=562.1 kV=0.23 PF=0.95 kW=1.855 Yearly=Shape_Load_29 Vminpu=0.9 Vmaxpu=1.1  
New Load.LOAD29_2 Phases=1 Bus1=562.2 kV=0.23 PF=0.95 kW=1.855 Yearly=Shape_Load_29 Vminpu=0.9 Vmaxpu=1.1  
New Load.LOAD30_1 Phases=1 Bus1=563.1 kV=0.23 PF=0.95 kW=4.605 Yearly=Shape_Load_30 Vminpu=0.9 Vmaxpu=1.1  
New Load.LOAD30_2 Phases=1 Bus1=563.2 kV=0.23 PF=0.95 kW=4.605 Yearly=Shape_Load_30 Vminpu=0.9 Vmaxpu=1.1  
New Load.LOAD31_1 Phases=1 Bus1=611.1 kV=0.23 PF=0.95 kW=4.74 Yearly=Shape_Load_31 Vminpu=0.9 Vmaxpu=1.1  
New Load.LOAD31_2 Phases=1 Bus1=611.2 kV=0.23 PF=0.95 kW=4.74 Yearly=Shape_Load_31 Vminpu=0.9 Vmaxpu=1.1  
New Load.LOAD32_3 Phases=1 Bus1=614.3 kV=0.23 PF=0.95 kW=2.31 Yearly=Shape_Load_32 Vminpu=0.9 Vmaxpu=1.1  
New Load.LOAD32_1 Phases=1 Bus1=614.1 kV=0.23 PF=0.95 kW=2.31 Yearly=Shape_Load_32 Vminpu=0.9 Vmaxpu=1.1  
New Load.LOAD33_3 Phases=1 Bus1=619.3 kV=0.23 PF=0.95 kW=3.51 Yearly=Shape_Load_33 Vminpu=0.9 Vmaxpu=1.1  
New Load.LOAD33_1 Phases=1 Bus1=619.1 kV=0.23 PF=0.95 kW=3.51 Yearly=Shape_Load_33 Vminpu=0.9 Vmaxpu=1.1  
New Load.LOAD34_1 Phases=1 Bus1=629.1 kV=0.23 PF=0.95 kW=2.48 Yearly=Shape_Load_34 Vminpu=0.9 Vmaxpu=1.1  
New Load.LOAD34_2 Phases=1 Bus1=629.2 kV=0.23 PF=0.95 kW=2.48 Yearly=Shape_Load_34 Vminpu=0.9 Vmaxpu=1.1  
New Load.LOAD35_2 Phases=1 Bus1=639.2 kV=0.23 PF=0.95 kW=5.4 Yearly=Shape_Load_35 Vminpu=0.9 Vmaxpu=1.1  
New Load.LOAD35_3 Phases=1 Bus1=639.3 kV=0.23 PF=0.95 kW=5.4 Yearly=Shape_Load_35 Vminpu=0.9 Vmaxpu=1.1  
New Load.LOAD36_2 Phases=1 Bus1=676.2 kV=0.23 PF=0.95 kW=3.635 Yearly=Shape_Load_36 Vminpu=0.9 Vmaxpu=1.1  
New Load.LOAD36_3 Phases=1 Bus1=676.3 kV=0.23 PF=0.95 kW=3.635 Yearly=Shape_Load_36 Vminpu=0.9 Vmaxpu=1.1  
New Load.LOAD37_2 Phases=1 Bus1=682.2 kV=0.23 PF=0.95 kW=3.205 Yearly=Shape_Load_37 Vminpu=0.9 Vmaxpu=1.1  
New Load.LOAD37_3 Phases=1 Bus1=682.3 kV=0.23 PF=0.95 kW=3.205 Yearly=Shape_Load_37 Vminpu=0.9 Vmaxpu=1.1  
New Load.LOAD38_2 Phases=1 Bus1=688.2 kV=0.23 PF=0.95 kW=5.2 Yearly=Shape_Load_38 Vminpu=0.9 Vmaxpu=1.1  
New Load.LOAD38_3 Phases=1 Bus1=688.3 kV=0.23 PF=0.95 kW=5.2 Yearly=Shape_Load_38 Vminpu=0.9 Vmaxpu=1.1  
New Load.LOAD39_3 Phases=1 Bus1=701.3 kV=0.23 PF=0.95 kW=2.42 Yearly=Shape_Load_39 Vminpu=0.9 Vmaxpu=1.1  
New Load.LOAD39_1 Phases=1 Bus1=701.1 kV=0.23 PF=0.95 kW=2.42 Yearly=Shape_Load_39 Vminpu=0.9 Vmaxpu=1.1  
New Load.LOAD40_2 Phases=1 Bus1=702.2 kV=0.23 PF=0.95 kW=3.685 Yearly=Shape_Load_40 Vminpu=0.9 Vmaxpu=1.1  
New Load.LOAD40_3 Phases=1 Bus1=702.3 kV=0.23 PF=0.95 kW=3.685 Yearly=Shape_Load_40 Vminpu=0.9 Vmaxpu=1.1  
New Load.LOAD41_2 Phases=1 Bus1=755.2 kV=0.23 PF=0.95 kW=3.895 Yearly=Shape_Load_41 Vminpu=0.9 Vmaxpu=1.1  
New Load.LOAD41_3 Phases=1 Bus1=755.3 kV=0.23 PF=0.95 kW=3.895 Yearly=Shape_Load_41 Vminpu=0.9 Vmaxpu=1.1  
New Load.LOAD42_3 Phases=1 Bus1=778.3 kV=0.23 PF=0.95 kW=6.65 Yearly=Shape_Load_42 Vminpu=0.9 Vmaxpu=1.1  
New Load.LOAD42_1 Phases=1 Bus1=778.1 kV=0.23 PF=0.95 kW=6.65 Yearly=Shape_Load_42 Vminpu=0.9 Vmaxpu=1.1  
New Load.LOAD43_3 Phases=1 Bus1=780.3 kV=0.23 PF=0.95 kW=4.475 Yearly=Shape_Load_43 Vminpu=0.9 Vmaxpu=1.1  
New Load.LOAD43_1 Phases=1 Bus1=780.1 kV=0.23 PF=0.95 kW=4.475 Yearly=Shape_Load_43 Vminpu=0.9 Vmaxpu=1.1  
New Load.LOAD44_2 Phases=1 Bus1=785.2 kV=0.23 PF=0.95 kW=2.945 Yearly=Shape_Load_44 Vminpu=0.9 Vmaxpu=1.1  
New Load.LOAD44_3 Phases=1 Bus1=785.3 kV=0.23 PF=0.95 kW=2.945 Yearly=Shape_Load_44 Vminpu=0.9 Vmaxpu=1.1  
New Load.LOAD45_2 Phases=1 Bus1=813.2 kV=0.23 PF=0.95 kW=6.35 Yearly=Shape_Load_45 Vminpu=0.9 Vmaxpu=1.1  
New Load.LOAD45_3 Phases=1 Bus1=813.3 kV=0.23 PF=0.95 kW=6.35 Yearly=Shape_Load_45 Vminpu=0.9 Vmaxpu=1.1  
New Load.LOAD46_1 Phases=1 Bus1=817.1 kV=0.23 PF=0.95 kW=4.1 Yearly=Shape_Load_46 Vminpu=0.9 Vmaxpu=1.1  
New Load.LOAD46_2 Phases=1 Bus1=817.2 kV=0.23 PF=0.95 kW=4.1 Yearly=Shape_Load_46 Vminpu=0.9 Vmaxpu=1.1  
New Load.LOAD47_3 Phases=1 Bus1=835.3 kV=0.23 PF=0.95 kW=4.415 Yearly=Shape_Load_47 Vminpu=0.9 Vmaxpu=1.1  
New Load.LOAD47_1 Phases=1 Bus1=835.1 kV=0.23 PF=0.95 kW=4.415 Yearly=Shape_Load_47 Vminpu=0.9 Vmaxpu=1.1  
New Load.LOAD48_1 Phases=1 Bus1=860.1 kV=0.23 PF=0.95 kW=2.795 Yearly=Shape_Load_48 Vminpu=0.9 Vmaxpu=1.1  
New Load.LOAD48_2 Phases=1 Bus1=860.2 kV=0.23 PF=0.95 kW=2.795 Yearly=Shape_Load_48 Vminpu=0.9 Vmaxpu=1.1  
New Load.LOAD49_1 Phases=1 Bus1=861.1 kV=0.23 PF=0.95 kW=4.23 Yearly=Shape_Load_49 Vminpu=0.9 Vmaxpu=1.1  
New Load.LOAD49_2 Phases=1 Bus1=861.2 kV=0.23 PF=0.95 kW=4.23 Yearly=Shape_Load_49 Vminpu=0.9 Vmaxpu=1.1  
New Load.LOAD50_2 Phases=1 Bus1=886.2 kV=0.23 PF=0.95 kW=3.35 Yearly=Shape_Load_50 Vminpu=0.9 Vmaxpu=1.1  
New Load.LOAD50_3 Phases=1 Bus1=886.3 kV=0.23 PF=0.95 kW=3.35 Yearly=Shape_Load_50 Vminpu=0.9 Vmaxpu=1.1  
New Load.LOAD51_1 Phases=1 Bus1=896.1 kV=0.23 PF=0.95 kW=5.25 Yearly=Shape_Load_51 Vminpu=0.9 Vmaxpu=1.1  
New Load.LOAD51_2 Phases=1 Bus1=896.2 kV=0.23 PF=0.95 kW=5.25 Yearly=Shape_Load_51 Vminpu=0.9 Vmaxpu=1.1  
New Load.LOAD52_1 Phases=1 Bus1=898.1 kV=0.23 PF=0.95 kW=4.54 Yearly=Shape_Load_52 Vminpu=0.9 Vmaxpu=1.1  
New Load.LOAD52_2 Phases=1 Bus1=898.2 kV=0.23 PF=0.95 kW=4.54 Yearly=Shape_Load_52 Vminpu=0.9 Vmaxpu=1.1  
New Load.LOAD53_2 Phases=1 Bus1=899.2 kV=0.23 PF=0.95 kW=3.975 Yearly=Shape_Load_53 Vminpu=0.9 Vmaxpu=1.1  
New Load.LOAD53_3 Phases=1 Bus1=899.3 kV=0.23 PF=0.95 kW=3.975 Yearly=Shape_Load_53 Vminpu=0.9 Vmaxpu=1.1  
New Load.LOAD54_1 Phases=1 Bus1=900.1 kV=0.23 PF=0.95 kW=2.99 Yearly=Shape_Load_54 Vminpu=0.9 Vmaxpu=1.1  
New Load.LOAD54_2 Phases=1 Bus1=900.2 kV=0.23 PF=0.95 kW=2.99 Yearly=Shape_Load_54 Vminpu=0.9 Vmaxpu=1.1  
New Load.LOAD55_1 Phases=1 Bus1=906.1 kV=0.23 PF=0.95 kW=3.35 Yearly=Shape_Load_50 Vminpu=0.9 Vmaxpu=1.1  
New Load.LOAD55_2 Phases=1 Bus1=906.2 kV=0.23 PF=0.95 kW=3.35 Yearly=Shape_Load_50 Vminpu=0.9 Vmaxpu=1.1  
